data_SOR


#**************************************************************************
#
# CIF taken from the IZA-SC Database of Zeolite Structures
# Ch. Baerlocher and L.B. McCusker
# Database of Zeolite Structures: http://www.iza-structure.org/databases/ 
#
# The atom coordinates and the cell parameters were optimized with DLS76
# assuming a pure SiO2 composition.
#
#**************************************************************************


_cell_length_a    20.9277
_cell_length_b    17.7028
_cell_length_c     7.5877
_cell_angle_alpha   90.00000
_cell_angle_beta    90.00000
_cell_angle_gamma   90.00000
_cell_volume 2811.09

_symmetry_space_group_name_H-M 'Cmmm'
_symmetry_Int_Tables_number         65
_symmetry_cell_setting             orthorhombic


loop_
_symmetry_equiv_pos_as_xyz
X,Y,Z

loop_
_atom_site_label
_atom_site_type_symbol
_atom_site_fract_x
_atom_site_fract_y
_atom_site_fract_z
Si1 Si  0.268940002 0.086439997 0.29934001
Si1 Si  0.731059998 0.913560003 0.70065999
Si1 Si  0.731059998 0.913560003 0.29934001
Si1 Si  0.268940002 0.086439997 0.70065999
Si1 Si  0.731059998 0.086439997 0.70065999
Si1 Si  0.268940002 0.913560003 0.29934001
Si1 Si  0.268940002 0.913560003 0.70065999
Si1 Si  0.731059998 0.086439997 0.29934001
Si1 Si  0.768940002 0.586439997 0.29934001
Si1 Si  0.231059998 0.413560003 0.70065999
Si1 Si  0.231059998 0.413560003 0.29934001
Si1 Si  0.768940002 0.586439997 0.70065999
Si1 Si  0.231059998 0.586439997 0.70065999
Si1 Si  0.768940002 0.413560003 0.29934001
Si1 Si  0.768940002 0.413560003 0.70065999
Si1 Si  0.231059998 0.586439997 0.29934001
Si2 Si  0.120719999 0.086300001 0.299329996
Si2 Si  0.879280001 0.913699999 0.700670004
Si2 Si  0.879280001 0.913699999 0.299329996
Si2 Si  0.120719999 0.086300001 0.700670004
Si2 Si  0.879280001 0.086300001 0.700670004
Si2 Si  0.120719999 0.913699999 0.299329996
Si2 Si  0.120719999 0.913699999 0.700670004
Si2 Si  0.879280001 0.086300001 0.299329996
Si2 Si  0.620719999 0.586300001 0.299329996
Si2 Si  0.379280001 0.413699999 0.700670004
Si2 Si  0.379280001 0.413699999 0.299329996
Si2 Si  0.620719999 0.586300001 0.700670004
Si2 Si  0.379280001 0.586300001 0.700670004
Si2 Si  0.620719999 0.413699999 0.299329996
Si2 Si  0.620719999 0.413699999 0.700670004
Si2 Si  0.379280001 0.586300001 0.299329996
Si3 Si  0.189449996 0.305779994 0
Si3 Si  0.189449996 0.305779994 1
Si3 Si  0.810550004 0.694220006 0
Si3 Si  0.810550004 0.694220006 1
Si3 Si  0.810550004 0.305779994 0
Si3 Si  0.810550004 0.305779994 1
Si3 Si  0.189449996 0.694220006 0
Si3 Si  0.189449996 0.694220006 1
Si3 Si  0.689449996 0.805779994 0
Si3 Si  0.689449996 0.805779994 1
Si3 Si  0.310550004 0.194220006 0
Si3 Si  0.310550004 0.194220006 1
Si3 Si  0.310550004 0.805779994 0
Si3 Si  0.310550004 0.805779994 1
Si3 Si  0.689449996 0.194220006 0
Si3 Si  0.689449996 0.194220006 1
Si4 Si  0.071419999 0.192179993 0
Si4 Si  0.071419999 0.192179993 1
Si4 Si  0.928580001 0.807820007 0
Si4 Si  0.928580001 0.807820007 1
Si4 Si  0.928580001 0.192179993 0
Si4 Si  0.928580001 0.192179993 1
Si4 Si  0.071419999 0.807820007 0
Si4 Si  0.071419999 0.807820007 1
Si4 Si  0.571419999 0.692179993 0
Si4 Si  0.571419999 0.692179993 1
Si4 Si  0.428580001 0.307820007 0
Si4 Si  0.428580001 0.307820007 1
Si4 Si  0.428580001 0.692179993 0
Si4 Si  0.428580001 0.692179993 1
Si4 Si  0.571419999 0.307820007 0
Si4 Si  0.571419999 0.307820007 1
O1  O   0.194810003 0.110140003 0.287640005
O1  O   0.805189997 0.889859997 0.712359995
O1  O   0.805189997 0.889859997 0.287640005
O1  O   0.194810003 0.110140003 0.712359995
O1  O   0.805189997 0.110140003 0.712359995
O1  O   0.194810003 0.889859997 0.287640005
O1  O   0.194810003 0.889859997 0.712359995
O1  O   0.805189997 0.110140003 0.287640005
O1  O   0.694810003 0.610140003 0.287640005
O1  O   0.305189997 0.389859997 0.712359995
O1  O   0.305189997 0.389859997 0.287640005
O1  O   0.694810003 0.610140003 0.712359995
O1  O   0.305189997 0.610140003 0.712359995
O1  O   0.694810003 0.389859997 0.287640005
O1  O   0.694810003 0.389859997 0.712359995
O1  O   0.305189997 0.610140003 0.287640005
O2  O   0.30952999  0.141460001 0.172910005
O2  O   0.69047001  0.858539999 0.827089995
O2  O   0.69047001  0.858539999 0.172910005
O2  O   0.30952999  0.141460001 0.827089995
O2  O   0.69047001  0.141460001 0.827089995
O2  O   0.30952999  0.858539999 0.172910005
O2  O   0.30952999  0.858539999 0.827089995
O2  O   0.69047001  0.141460001 0.172910005
O2  O   0.80952999  0.641460001 0.172910005
O2  O   0.19047001  0.358539999 0.827089995
O2  O   0.19047001  0.358539999 0.172910005
O2  O   0.80952999  0.641460001 0.827089995
O2  O   0.19047001  0.641460001 0.827089995
O2  O   0.80952999  0.358539999 0.172910005
O2  O   0.80952999  0.358539999 0.827089995
O2  O   0.19047001  0.641460001 0.172910005
O3  O   0.277330011 0   0.237470001
O3  O   0.277330011 1   0.237470001
O3  O   0.722669989 0   0.762529999
O3  O   0.722669989 1   0.762529999
O3  O   0.722669989 0   0.237470001
O3  O   0.722669989 1   0.237470001
O3  O   0.277330011 0   0.762529999
O3  O   0.277330011 1   0.762529999
O3  O   0.777330011 0.5 0.237470001
O3  O   0.222669989 0.5 0.762529999
O3  O   0.222669989 0.5 0.237470001
O3  O   0.777330011 0.5 0.762529999
O4  O   0.292939991 0.095179997 0.5
O4  O   0.707060009 0.904820003 0.5
O4  O   0.707060009 0.095179997 0.5
O4  O   0.292939991 0.904820003 0.5
O4  O   0.792939991 0.595179997 0.5
O4  O   0.207060009 0.404820003 0.5
O4  O   0.207060009 0.595179997 0.5
O4  O   0.792939991 0.404820003 0.5
O5  O   0.11259 0   0.236279994
O5  O   0.11259 1   0.236279994
O5  O   0.88741 0   0.763720006
O5  O   0.88741 1   0.763720006
O5  O   0.88741 0   0.236279994
O5  O   0.88741 1   0.236279994
O5  O   0.11259 0   0.763720006
O5  O   0.11259 1   0.763720006
O5  O   0.61259 0.5 0.236279994
O5  O   0.38741 0.5 0.763720006
O5  O   0.38741 0.5 0.236279994
O5  O   0.61259 0.5 0.763720006
O6  O   0.096639998 0.094499998 0.5
O6  O   0.903360002 0.905500002 0.5
O6  O   0.903360002 0.094499998 0.5
O6  O   0.096639998 0.905500002 0.5
O6  O   0.596639998 0.594499998 0.5
O6  O   0.403360002 0.405500002 0.5
O6  O   0.403360002 0.594499998 0.5
O6  O   0.596639998 0.405500002 0.5
O7  O   0.079379998 0.140719995 0.173460007
O7  O   0.920620002 0.859280005 0.826539993
O7  O   0.920620002 0.859280005 0.173460007
O7  O   0.079379998 0.140719995 0.826539993
O7  O   0.920620002 0.140719995 0.826539993
O7  O   0.079379998 0.859280005 0.173460007
O7  O   0.079379998 0.859280005 0.826539993
O7  O   0.920620002 0.140719995 0.173460007
O7  O   0.579379998 0.640719995 0.173460007
O7  O   0.420620002 0.359280005 0.826539993
O7  O   0.420620002 0.359280005 0.173460007
O7  O   0.579379998 0.640719995 0.826539993
O7  O   0.420620002 0.640719995 0.826539993
O7  O   0.579379998 0.359280005 0.173460007
O7  O   0.579379998 0.359280005 0.826539993
O7  O   0.420620002 0.640719995 0.173460007
O8  O   0.25    0.25    0
O8  O   0.25    0.25    1
O8  O   0.75    0.75    0
O8  O   0.75    0.75    1
O8  O   0.75    0.25    0
O8  O   0.75    0.25    1
O8  O   0.25    0.75    0
O8  O   0.25    0.75    1
O9  O   0.123649999 0.258769989 0
O9  O   0.123649999 0.258769989 1
O9  O   0.876350001 0.741230011 0
O9  O   0.876350001 0.741230011 1
O9  O   0.876350001 0.258769989 0
O9  O   0.876350001 0.258769989 1
O9  O   0.123649999 0.741230011 0
O9  O   0.123649999 0.741230011 1
O9  O   0.623649999 0.758769989 0
O9  O   0.623649999 0.758769989 1
O9  O   0.376350001 0.241230011 0
O9  O   0.376350001 0.241230011 1
O9  O   0.376350001 0.758769989 0
O9  O   0.376350001 0.758769989 1
O9  O   0.623649999 0.241230011 0
O9  O   0.623649999 0.241230011 1
O10 O   0   0.226300001 0
O10 O   0   0.226300001 1
O10 O   1   0.226300001 0
O10 O   1   0.226300001 1
O10 O   0   0.773699999 0
O10 O   0   0.773699999 1
O10 O   1   0.773699999 0
O10 O   1   0.773699999 1
O10 O   0.5 0.726300001 0
O10 O   0.5 0.726300001 1
O10 O   0.5 0.273699999 0
O10 O   0.5 0.273699999 1
O2  O   0.19047001  0.358539999 -0.172910005
O2  O   0.19047001  0.358539999 1.172910005
O2  O   0.80952999  0.641460001 -0.172910005
O2  O   0.80952999  0.641460001 1.172910005
O2  O   0.80952999  0.358539999 -0.172910005
O2  O   0.80952999  0.358539999 1.172910005
O2  O   0.19047001  0.641460001 -0.172910005
O2  O   0.19047001  0.641460001 1.172910005
O2  O   0.69047001  0.858539999 -0.172910005
O2  O   0.69047001  0.858539999 1.172910005
O2  O   0.30952999  0.141460001 -0.172910005
O2  O   0.30952999  0.141460001 1.172910005
O2  O   0.30952999  0.858539999 -0.172910005
O2  O   0.30952999  0.858539999 1.172910005
O2  O   0.69047001  0.141460001 -0.172910005
O2  O   0.69047001  0.141460001 1.172910005
O7  O   0.079379998 0.140719995 -0.173460007
O7  O   0.079379998 0.140719995 1.173460007
O7  O   0.920620002 0.859280005 -0.173460007
O7  O   0.920620002 0.859280005 1.173460007
O7  O   0.920620002 0.140719995 -0.173460007
O7  O   0.920620002 0.140719995 1.173460007
O7  O   0.079379998 0.859280005 -0.173460007
O7  O   0.079379998 0.859280005 1.173460007
O7  O   0.579379998 0.640719995 -0.173460007
O7  O   0.579379998 0.640719995 1.173460007
O7  O   0.420620002 0.359280005 -0.173460007
O7  O   0.420620002 0.359280005 1.173460007
O7  O   0.420620002 0.640719995 -0.173460007
O7  O   0.420620002 0.640719995 1.173460007
O7  O   0.579379998 0.359280005 -0.173460007
O7  O   0.579379998 0.359280005 1.173460007